CPYDAR/ieee13x/LineCode.dss
New "LineCode.mtx601" nphases=3 baseFreq=60 rmatrix=[  0.34650000   0.15350000   0.15800000 |  0.15350000   0.33750000   0.15600000 |  0.15800000   0.15600000   0.34140000 ] xmatrix=[  1.01790000   0.38490000   0.42360000 |  0.38490000   1.04780000   0.50170000 |  0.42360000   0.50170000   1.03480000 ] cmatrix=[  0.00000000   0.00000000   0.00000000 |  0.00000000   0.00000000   0.00000000 |  0.00000000   0.00000000   0.00000000 ] units=mi normamps=730
New "LineCode.mtx602" nphases=3 baseFreq=60 rmatrix=[  0.75260000   0.15350000   0.15600000 |  0.15350000   0.74750000   0.15800000 |  0.15600000   0.15800000   0.74360000 ] xmatrix=[  1.18140000   0.38490000   0.50170000 |  0.38490000   1.19830000   0.42360000 |  0.50170000   0.42360000   1.21120000 ] cmatrix=[  0.00000000   0.00000000   0.00000000 |  0.00000000   0.00000000   0.00000000 |  0.00000000   0.00000000   0.00000000 ] units=mi normamps=340
New "LineCode.mtx603" nphases=2 baseFreq=60 rmatrix=[  1.32380000   0.20660000 |  0.20660000   1.32940000 ] xmatrix=[  1.35690000   0.45910000 |  0.45910000   1.34710000 ] cmatrix=[  0.00000000   0.00000000 |  0.00000000   0.00000000 ] units=mi normamps=230
New "LineCode.mtx604" nphases=2 baseFreq=60 rmatrix=[  1.32380000   0.20660000 |  0.20660000   1.32940000 ] xmatrix=[  1.35690000   0.45910000 |  0.45910000   1.34710000 ] cmatrix=[  0.00000000   0.00000000 |  0.00000000   0.00000000 ] units=mi normamps=230
New "LineCode.mtx605" nphases=1 baseFreq=60 rmatrix=[  1.32920000 ] xmatrix=[  1.34750000 ] cmatrix=[  0.00000000 ] units=mi normamps=230
New "LineCode.mtx606" nphases=3 baseFreq=60 rmatrix=[  0.79172100   0.31847600   0.28345000 |  0.31847600   0.78164900   0.31847600 |  0.28345000   0.31847600   0.79172100 ] xmatrix=[  0.43835200   0.02768380  -0.01842040 |  0.02768380   0.39669700   0.02768380 | -0.01842040   0.02768380   0.43835200 ] cmatrix=[383.94800000   0.00000000   0.00000000 |  0.00000000 383.94800000   0.00000000 |  0.00000000   0.00000000 383.94800000 ] units=mi normamps=260
New "LineCode.mtx607" nphases=1 baseFreq=60 rmatrix=[  1.34250000 ] xmatrix=[  0.51240000 ] cmatrix=[236.00000000 ] units=mi normamps=165
