CPYDAR/ieee13x/Line.dss
New "Line.650632" phases=3 bus1=rg60.1.2.3 bus2=632.1.2.3 linecode=mtx601 Seasons=1 Ratings=[400,] normamps=730 emergamps=600 length=2000 units=ft
New "Line.632670" phases=3 bus1=mid.1.2.3 bus2=670.1.2.3 linecode=mtx601 Seasons=1 Ratings=[400,] normamps=730 emergamps=600 length=667 units=ft
New "Line.670671" phases=3 bus1=670.1.2.3 bus2=671.1.2.3 linecode=mtx601 Seasons=1 Ratings=[400,] normamps=730 emergamps=600 length=1333 units=ft
New "Line.671680" phases=3 bus1=671.1.2.3 bus2=680.1.2.3 linecode=mtx601 Seasons=1 Ratings=[400,] normamps=730 emergamps=600 length=1000 units=ft
New "Line.632633" phases=3 bus1=632.1.2.3 bus2=633.1.2.3 linecode=mtx602 Seasons=1 Ratings=[400,] normamps=340 emergamps=600 length=500 units=ft
New "Line.632645" phases=2 bus1=632.3.2 bus2=645.3.2 linecode=mtx603 Seasons=1 Ratings=[400,] normamps=230 emergamps=600 length=500 units=ft
New "Line.645646" phases=2 bus1=645.3.2 bus2=646.3.2 linecode=mtx603 Seasons=1 Ratings=[400,] normamps=230 emergamps=600 length=300 units=ft
New "Line.692675" phases=3 bus1=692.1.2.3 bus2=675.1.2.3 linecode=mtx606 Seasons=1 Ratings=[400,] normamps=260 emergamps=600 length=500 units=ft
New "Line.671684" phases=2 bus1=671.1.3 bus2=684.1.3 linecode=mtx604 Seasons=1 Ratings=[400,] normamps=230 emergamps=600 length=300 units=ft
New "Line.684611" phases=1 bus1=tap.3 bus2=611.3 linecode=mtx605 Seasons=1 Ratings=[400,] normamps=230 emergamps=600 length=300 units=ft
New "Line.684652" phases=1 bus1=684.1 bus2=652.1 linecode=mtx607 Seasons=1 Ratings=[400,] normamps=165 emergamps=600 length=800 units=ft
New "Line.671692" phases=3 bus1=671 bus2=692 Switch=True r1=0.0001 r0=0.0001 x1=0 x0=0 C1=0 C0=0
New "Line.brkr1" phases=3 bus1=650 bus2=brkr Switch=True r1=0.0001 r0=0.0001 x1=0 x0=0 C1=0 C0=0
New "Line.fuse1" phases=3 bus1=633 bus2=xf1 Switch=True r1=0.0001 r0=0.0001 x1=0 x0=0 C1=0 C0=0
New "Line.rec1" phases=3 bus1=632 bus2=mid Switch=True r1=0.0001 r0=0.0001 x1=0 x0=0 C1=0 C0=0
New "Line.sect1" phases=1 bus1=684.3 bus2=tap.3 Switch=True rmatrix=[1 ] xmatrix=[1 ] cmatrix=[1.1 ]
